Initialize SIGNATURE TABLE
ST_SET: 1
ST_WAY: 256
ST_TAG_BIT: 16
ST_TAG_MASK: ffff

Initialize PATTERN TABLE
PT_SET: 512
PT_WAY: 4
SIG_DELTA_BIT: 7
C_SIG_BIT: 4
C_DELTA_BIT: 4

Initialize PREFETCH FILTER
FILTER_SET: 1024

*** ChampSim Multicore Out-of-Order Simulator ***

Warmup Instructions: 1000000
Simulation Instructions: 10000000
Number of CPUs: 1
LLC sets: 2048
LLC ways: 16
Off-chip DRAM Size: 4096 MB Channels: 1 Width: 64-bit Data Rate: 3200 MT/s

CPU 0 runs /home/yashjonjale/Documents/CS683/fdip_champ/ChampSim-master-BTBX/dpc3_traces/server_001.champsimtrace.xz
Basic BTB sets: 4096 ways: 4 indirect buffer size: 4096 RAS size: 64
CPU 0 L1D next line prefetcher

Warmup complete CPU 0 instructions: 1000003 cycles: 314013 (Simulation time: 0 hr 0 min 2 sec) 

Heartbeat CPU 0 instructions: 10000000 cycles: 13441956 heartbeat IPC: 0.743939 cumulative IPC: 0.68556 (Simulation time: 0 hr 0 min 17 sec) 
Finished CPU 0 instructions: 10000003 cycles: 14647412 cumulative IPC: 0.682715 (Simulation time: 0 hr 0 min 19 sec) 

ChampSim completed all CPUs

Region of Interest Statistics

CPU 0
XXX cumulative-IPC 0.682715
XXX instructions 10000003
XXX cycles 14647412
L1D TOTAL     ACCESS:    3451320  HIT:    2885194  MISS:     566126
L1D LOAD      ACCESS:    1268611  HIT:    1026826  MISS:     241785
L1D RFO       ACCESS:    1007359  HIT:     938423  MISS:      68936
L1D PREFETCH  ACCESS:    1175350  HIT:     919945  MISS:     255405
L1D WRITEBACK ACCESS:          0  HIT:          0  MISS:          0
L1D PREFETCH  REQUESTED:    1285337  ISSUED:    1243707
XXX L1D-USEFUL 52271
XXX L1D-USELESS 203147
L1D AVERAGE MISS LATENCY: 37.022 cycles
L1I TOTAL     ACCESS:    2354489  HIT:    2219678  MISS:     134811
L1I LOAD      ACCESS:    1193837  HIT:    1116963  MISS:      76874
L1I RFO       ACCESS:          0  HIT:          0  MISS:          0
L1I PREFETCH  ACCESS:    1160652  HIT:    1102715  MISS:      57937
L1I WRITEBACK ACCESS:          0  HIT:          0  MISS:          0
L1I PREFETCH  REQUESTED:    1246796  ISSUED:    1246796
XXX L1I-USEFUL 34100
XXX L1I-USELESS 23716
L1I AVERAGE MISS LATENCY: 52.5459 cycles
L2C TOTAL     ACCESS:    1020396  HIT:     844137  MISS:     176259
L2C LOAD      ACCESS:     283716  HIT:     226605  MISS:      57111
L2C RFO       ACCESS:      63134  HIT:      48124  MISS:      15010
L2C PREFETCH  ACCESS:     547990  HIT:     446604  MISS:     101386
L2C WRITEBACK ACCESS:     125556  HIT:     122804  MISS:       2752
L2C PREFETCH  REQUESTED:     590532  ISSUED:     590519
XXX L2C-USEFUL 13867
XXX L2C-USELESS 87553
L2C AVERAGE MISS LATENCY: 82.2174 cycles
LLC TOTAL     ACCESS:     341659  HIT:     266690  MISS:      74969
LLC LOAD      ACCESS:      57018  HIT:      48442  MISS:       8576
LLC RFO       ACCESS:      15008  HIT:       1265  MISS:      13743
LLC PREFETCH  ACCESS:     236598  HIT:     184526  MISS:      52072
LLC WRITEBACK ACCESS:      33035  HIT:      32457  MISS:        578
LLC PREFETCH  REQUESTED:          0  ISSUED:          0
XXX LLC-USEFUL 8718
XXX LLC-USELESS 34823
LLC AVERAGE MISS LATENCY: 154.356 cycles
Major fault: 0 Minor fault: 4175
XXX disp-0 133667
XXX disp-1 0
XXX disp-2 1
XXX disp-3 203678
XXX disp-4 42533
XXX disp-5 42868
XXX disp-6 43225
XXX disp-7 48761
XXX disp-8 27638
XXX disp-9 22936
XXX disp-10 12796
XXX disp-11 2784
XXX disp-12 5943
XXX disp-13 631
XXX disp-14 5131
XXX disp-15 2669
XXX disp-16 5010
XXX disp-17 7930
XXX disp-18 15685
XXX disp-19 19686
XXX disp-20 34888
XXX disp-21 58726
XXX disp-22 7999
XXX disp-23 1710
XXX disp-24 1423
XXX disp-25 614
XXX disp-26 686
XXX disp-27 4
XXX disp-28 298
XXX disp-29 0
XXX disp-30 0
XXX disp-31 0
XXX disp-32 0
XXX disp-33 0
XXX disp-34 0
XXX disp-35 0
XXX disp-36 0
XXX disp-37 0
XXX disp-38 0
XXX disp-39 0
XXX disp-40 0
XXX disp-41 0
XXX disp-42 0
XXX disp-43 0
XXX disp-44 0
XXX disp-45 0
XXX disp-46 0
XXX disp-47 0
XXX disp-48 0
XXX disp-49 0
XXX disp-50 0
XXX disp-51 0
XXX disp-52 0
XXX disp-53 0
XXX disp-54 0
XXX disp-55 0
XXX disp-56 0
XXX disp-57 0
XXX disp-58 0
XXX disp-59 0
XXX disp-60 0
XXX disp-61 0
XXX disp-62 0
XXX disp-63 0
XXX disp-64 0
XXX disp-65 0
XXX diffBits-0 133667
XXX diffBits-1 1
XXX diffBits-2 50174
XXX diffBits-3 72664
XXX diffBits-4 97550
XXX diffBits-5 34996
XXX diffBits-6 39957
XXX diffBits-7 60561
XXX diffBits-8 33367
XXX diffBits-9 27816
XXX diffBits-10 17955
XXX diffBits-11 8251
XXX diffBits-12 2380
XXX diffBits-13 7104
XXX diffBits-14 1340
XXX diffBits-15 8277
XXX diffBits-16 2837
XXX diffBits-17 3505
XXX diffBits-18 16101
XXX diffBits-19 30468
XXX diffBits-20 51927
XXX diffBits-21 37034
XXX diffBits-22 2717
XXX diffBits-23 7669
XXX diffBits-24 0
XXX diffBits-25 1300
XXX diffBits-26 0
XXX diffBits-27 302
XXX diffBits-28 0
XXX diffBits-29 0
XXX diffBits-30 0
XXX diffBits-31 0
XXX diffBits-32 0
XXX diffBits-33 0
XXX diffBits-34 0
XXX diffBits-35 0
XXX diffBits-36 0
XXX diffBits-37 0
XXX diffBits-38 0
XXX diffBits-39 0
XXX diffBits-40 0
XXX diffBits-41 0
XXX diffBits-42 0
XXX diffBits-43 0
XXX diffBits-44 0
XXX diffBits-45 0
XXX diffBits-46 0
XXX diffBits-47 0
XXX diffBits-48 0
XXX diffBits-49 0
XXX diffBits-50 0
XXX diffBits-51 0
XXX diffBits-52 0
XXX diffBits-53 0
XXX diffBits-54 0
XXX diffBits-55 0
XXX diffBits-56 0
XXX diffBits-57 0
XXX diffBits-58 0
XXX diffBits-59 0
XXX diffBits-60 0
XXX diffBits-61 0
XXX diffBits-62 0
XXX diffBits-63 0
XXX diffBits-64 0
XXX diffBits-65 0
CPU 0 L1D next line prefetcher final stats

DRAM Statistics
 CHANNEL 0
 RQ ROW_BUFFER_HIT:      33034  ROW_BUFFER_MISS:      41348
 DBUS_CONGESTED:      31192
 WQ ROW_BUFFER_HIT:       3220  ROW_BUFFER_MISS:      13797  FULL:          0

 AVG_CONGESTED_CYCLE: 6

CPU 0 Branch Prediction Accuracy: 95.8454% MPKI: 6.9913 Average ROB Occupancy at Mispredict: 108.869

XXX total_mispredicts 69913
XXX total_target_mispredicts1 55254
XXX total_target_mispredicts2 7322
XXX total_direction_mispredicts 7337
XXX mispredict_on_btb_hit 46533
XXX NOT_BRANCH: 0
XXX BRANCH_DIRECT_JUMP: 1
XXX BRANCH_INDIRECT: 14346
XXX BRANCH_CONDITIONAL: 0
XXX BRANCH_DIRECT_CALL: 1
XXX BRANCH_INDIRECT_CALL: 74
XXX BRANCH_RETURN: 32111
XXX BRANCH_OTHER: 0
Branch types
NOT_BRANCH: 8316761 83.1676%
BRANCH_DIRECT_JUMP: 64272 0.64272%
BRANCH_INDIRECT: 34188 0.34188%
BRANCH_CONDITIONAL: 1340721 13.4072%
BRANCH_DIRECT_CALL: 116174 1.16174%
BRANCH_INDIRECT_CALL: 3116 0.03116%
BRANCH_RETURN: 124323 1.24323%
BRANCH_OTHER: 0 0%

XXX BTB_reads: 7788747
XXX BTB_writes: 899126
XXX PageBTB_reads: 0
XXX PageBTB_writes: 0
XXX PageBTB_readsBeforeWrite: 0
XXX RegionBTB_reads: 0
XXX RegionBTB_writes: 0
XXX RegionBTB_readsBeforeWrite: 0
XXX BTB_4D_Hits 199611
XXX BTB_6D_Hits 66897
XXX BTB_8D_Hits 109676
XXX BTB_12D_Hits 31206
XXX BTB_18D_Hits 106136
XXX BTB_25D_Hits 43608
XXX BTB_46D_Hits 246
XXX BTB_Ret_Hits 121610
XXX BTB_4D_Misses 3260
XXX BTB_6D_Misses 1047
XXX BTB_8D_Misses 2276
XXX BTB_12D_Misses 1543
XXX BTB_18D_Misses 1074
XXX BTB_25D_Misses 2012
XXX BTB_46D_Misses 2118
XXX BTB_Ret_Misses 2713
XXX Num_unique_branches 16945
